# LPF for MODFLOW, generated by Flopy.
        53    -1E+30         0, 
         0
         0
         1
         0
         0
OPEN/CLOSE          hk_Layer_1.ref               1  (free) -1  #hk Layer 1                    
OPEN/CLOSE         vka_Layer_1.ref               1  (free) -1  #vka Layer 1  
OPEN/CLOSE          ss_Layer_1.ref               1  (free) -1  #ss Layer 1  