pcf
* control data
             restart          estimation
        30        20         3         0         2         0
         3         1              single               point         1         0         0          noobsreref
   1.000000E-01  -4.000000E+00   3.000000E-01   3.000000E-02        10       999          lamforgive        noderforgive
   5.000000E+00   5.000000E+00   1.000000E-03         0         0
   1.000000E-01         1   1.100000E+00               noaui          nosenreuse        noboundscale
        0   5.000000E-03         4         4   5.000000E-03         4   0.000000E+00         1  -1.000000E+00
         1         1         1         0             jcosave          verboserec          jcosaveitn          reisaveitn          parsaveitn        noparsaverun
* singular value decomposition
         1
         1    1.000000E-03
0
* parameter groups
 k                       relative              1.0000000000E-02       0.0  switch                2.0000000000E+00       parabolic             1.0000000000E-05      5.0000000000E-01       smaller              
 ss                       relative              1.0000000000E-02       0.0  switch                2.0000000000E+00       parabolic             1.0000000000E-05      5.0000000000E-01       smaller              
 strt                       relative              1.0000000000E-02       0.0  switch                2.0000000000E+00       parabolic             1.0000000000E-05      5.0000000000E-01       smaller              

* parameter data
 strt_01              log                  factor                1.0000000000E+00      1.0000000000E-01      1.0000000000E+01       strt                    1.0000000000E+00      0.0000000000E+00      1          
 strt_02              log                  factor                1.0000000000E+00      1.0000000000E-01      1.0000000000E+01       strt                    1.0000000000E+00      0.0000000000E+00      1          
 strt_03              log                  factor                1.0000000000E+00      1.0000000000E-01      1.0000000000E+01       strt                    1.0000000000E+00      0.0000000000E+00      1          
 strt_04              log                  factor                1.0000000000E+00      1.0000000000E-01      1.0000000000E+01       strt                    1.0000000000E+00      0.0000000000E+00      1          
 strt_05              log                  factor                1.0000000000E+00      1.0000000000E-01      1.0000000000E+01       strt                    1.0000000000E+00      0.0000000000E+00      1          
 strt_06              log                  factor                1.0000000000E+00      1.0000000000E-01      1.0000000000E+01       strt                    1.0000000000E+00      0.0000000000E+00      1          
 strt_07              log                  factor                1.0000000000E+00      1.0000000000E-01      1.0000000000E+01       strt                    1.0000000000E+00      0.0000000000E+00      1          
 strt_08              log                  factor                1.0000000000E+00      1.0000000000E-01      1.0000000000E+01       strt                    1.0000000000E+00      0.0000000000E+00      1          
 strt_09              log                  factor                1.0000000000E+00      1.0000000000E-01      1.0000000000E+01       strt                    1.0000000000E+00      0.0000000000E+00      1          
 strt_10              log                  factor                1.0000000000E+00      1.0000000000E-01      1.0000000000E+01       strt                    1.0000000000E+00      0.0000000000E+00      1          
 ss_01                log                factor                  0.0001                0.00001               0.001                  ss                     1.0000000000E+00      0.0000000000E+00      1          
 ss_02                log                factor                  0.0001                0.00001               0.001                  ss                     1.0000000000E+00      0.0000000000E+00      1          
 ss_03                log                factor                  0.0001                0.00001               0.001                  ss                     1.0000000000E+00      0.0000000000E+00      1          
 ss_04                log                factor                  0.0001                0.00001               0.001                  ss                     1.0000000000E+00      0.0000000000E+00      1          
 ss_05                log                factor                  0.0001                0.00001               0.001                  ss                     1.0000000000E+00      0.0000000000E+00      1          
 ss_06                log                factor                  0.0001                0.00001               0.001                  ss                     1.0000000000E+00      0.0000000000E+00      1          
 ss_07                log                factor                  0.0001                0.00001               0.001                  ss                     1.0000000000E+00      0.0000000000E+00      1          
 ss_08                log                factor                  0.0001                0.00001               0.001                  ss                     1.0000000000E+00      0.0000000000E+00      1          
 ss_09                log                factor                  0.0001                0.00001               0.001                  ss                     1.0000000000E+00      0.0000000000E+00      1          
 ss_10                log                factor                  0.0001                0.00001               0.001                  ss                     1.0000000000E+00      0.0000000000E+00      1          
 k_01                 log                  factor                2.5000000000E+00      2.5000000000E-01      2.5000000000E+01       k                     1.0000000000E+00      0.0000000000E+00      1          
 k_02                   log                    factor                2.5000000000E+00      2.5000000000E-01      2.5000000000E+01       k                     1.0000000000E+00      0.0000000000E+00      1          
 k_03                   log                    factor                2.5000000000E+00      2.5000000000E-01      2.5000000000E+01       k                     1.0000000000E+00      0.0000000000E+00      1          
 k_04                   log                    factor                2.5000000000E+00      2.5000000000E-01      2.5000000000E+01       k                     1.0000000000E+00      0.0000000000E+00      1          
 k_05                   log                    factor                2.5000000000E+00      2.5000000000E-01      2.5000000000E+01       k                     1.0000000000E+00      0.0000000000E+00      1          
 k_06                   log                    factor                2.5000000000E+00      2.5000000000E-01      2.5000000000E+01       k                     1.0000000000E+00      0.0000000000E+00      1          
 k_07                   log                    factor                2.5000000000E+00      2.5000000000E-01      2.5000000000E+01       k                     1.0000000000E+00      0.0000000000E+00      1          
 k_08                   log                    factor                2.5000000000E+00      2.5000000000E-01      2.5000000000E+01       k                     1.0000000000E+00      0.0000000000E+00      1          
 k_09                   log                    factor                2.5000000000E+00      2.5000000000E-01      2.5000000000E+01       k                     1.0000000000E+00      0.0000000000E+00      1          
 k_10                   log                    factor                2.5000000000E+00      2.5000000000E-01      2.5000000000E+01       k                     1.0000000000E+00      0.0000000000E+00      1          
* observation groups
head1
head2                 
* observation data
 h01_01                1.5000000000E+00      0.0000000000E+00       head1                
 h01_02                1.7000000000E+00      0.0000000000E+00       head1                
 h01_03                1.9000000000E+00      0.0000000000E+00       head1                
 h01_04                2.1000000000E+00      1.0000000000E+01       head1                
 h01_05                2.3000000000E+00      0.0000000000E+00       head1                
 h01_06                2.5000000000E+00      1.0000000000E+01       head1                
 h01_07                2.7000000000E+00      0.0000000000E+00       head1                
 h01_08                2.9000000000E+00      0.0000000000E+00       head1                
 h01_09                3.1000000000E+00      0.0000000000E+00       head1                
 h01_10                3.3000000000E+00      0.0000000000E+00       head1                
 h02_01                1.5000000000E+00      0.0000000000E+00       head2                
 h02_02                1.9000000000E+00      0.0000000000E+00       head2                
 h02_03                2.3000000000E+00      0.0000000000E+00       head2                
 h02_04                2.7000000000E+00      0.0000000000E+00       head2                
 h02_05                3.1000000000E+00      0.0000000000E+00       head2                
 h02_06                3.5000000000E+00      0.0000000000E+00       head2                
 h02_07                3.9000000000E+00      0.0000000000E+00       head2                
 h02_08                4.3000000000E+00      0.0000000000E+00       head2                
 h02_09                4.7000000000E+00      0.0000000000E+00       head2                
 h02_10                5.1000000000E+00      0.0000000000E+00       head2                
* model command line
mfnwt 10par_xsec.nam
* model input/output
hk_Layer_1.ref.tpl hk_Layer_1.ref
ss_Layer_1.ref.tpl ss_Layer_1.ref
strt_Layer_1.ref.tpl strt_Layer_1.ref
10par_xsec.hds.ins 10par_xsec.hds
