ptf ~
BEGIN Options
  PRINT_INPUT
  PRINT_FLOWS
  SAVE_FLOWS
END Options

BEGIN Dimensions
  MAXBOUND  6
END Dimensions

BEGIN PERIOD  1
3 10 17 ~  welflx_2_9_16_21   ~
3 12 14 ~  welflx_2_11_13_21   ~
3 21 15 ~  welflx_2_20_14_21   ~
3 27 11 ~  welflx_2_26_10_21   ~
3 30 7 ~  welflx_2_29_6_21   ~
3 35 13 ~  welflx_2_34_12_21   ~
END PERIOD  1
