BEGIN Options
  READASARRAYS
  SAVE_FLOWS
END Options

BEGIN PERIOD  1
  recharge
   constant 6.16896000000e-05
END PERIOD  1

