BEGIN Options
  TIME_UNITS  days
END Options
BEGIN Dimensions
  NPER  1
END Dimensions
BEGIN PERIODDATA
1.0000000000  1       1.00000000
END PERIODDATA
