BEGIN Options
  PRINT_INPUT
  PRINT_FLOWS
  SAVE_FLOWS
END Options

BEGIN Dimensions
  MAXBOUND  6
END Dimensions

BEGIN PERIOD  1
3 10 17 1.5749999999999994e+02
3 12 14 1.57499999999999943e+02
3 21 15 1.57499999999999943e+02
3 27 11 1.57499999999999943e+02
3 30 7 1.5749999999999994e+02
3 35 13 1.57499999999999943e+02
END PERIOD  1
