ptf ~
BEGIN Options
  READASARRAYS
  SAVE_FLOWS
END Options

BEGIN PERIOD  1
  recharge
   constant ~     rch_13     ~
END PERIOD  1

