ptf  ~
BEGIN Options
  TIME_UNITS  days
END Options
BEGIN Dimensions
  NPER  1
END Dimensions
BEGIN PERIODDATA
~  perlen  ~  1       1.00000000
END PERIODDATA
