# Name file for MODFLOW-NWT, generated by Flopy version 3.3.5.
#xll:0.0; yll:0.0; rotation:0.0; units:meters; lenuni:2; start_datetime:1-1-1970
LIST               2  es_pmp.list
DIS               11  es_pmp.dis
BAS6              13  es_pmp.bas
UPW               31  es_pmp.upw
GHB               23  es_pmp.ghb
WEL               20  es_pmp.wel
OC                14  es_pmp.oc
NWT               32  es_pmp.nwt
DATA(BINARY)      55  es_pmp.cbc REPLACE
DATA(BINARY)      51  es_pmp.hds REPLACE
