# DIS package for MODFLOW-NWT generated by Flopy 3.3.5
         1       100       100        24         4         2
  0
CONSTANT    1.000000E+01                           #delr                          
CONSTANT    1.000000E+01                           #delc                          
CONSTANT    5.000000E+01                           #model_top                     
CONSTANT    0.000000E+00                           #botm layer 1                  
     30.000000            10  1.000000  SS 
     30.000000            10  1.000000  TR 
     30.000000            10  1.000000  TR 
     30.000000            10  1.000000  TR 
     30.000000            10  1.000000  TR 
     30.000000            10  1.000000  TR 
     30.000000            10  1.000000  TR 
     30.000000            10  1.000000  TR 
     30.000000            10  1.000000  TR 
     30.000000            10  1.000000  TR 
     30.000000            10  1.000000  TR 
     30.000000            10  1.000000  TR 
     30.000000            10  1.000000  TR 
     30.000000            10  1.000000  TR 
     30.000000            10  1.000000  TR 
     30.000000            10  1.000000  TR 
     30.000000            10  1.000000  TR 
     30.000000            10  1.000000  TR 
     30.000000            10  1.000000  TR 
     30.000000            10  1.000000  TR 
     30.000000            10  1.000000  TR 
     30.000000            10  1.000000  TR 
     30.000000            10  1.000000  TR 
     30.000000            10  1.000000  TR 
