# OC package for MODFLOW-NWT generated by Flopy 3.3.5
HEAD PRINT FORMAT   0
HEAD SAVE UNIT    51
DRAWDOWN PRINT FORMAT   0
COMPACT BUDGET AUX

period 1 step 10 
  print head
  print budget
  save head
  save budget

period 2 step 10 
  print head
  print budget
  save head
  save budget

period 3 step 10 
  print head
  print budget
  save head
  save budget

period 4 step 10 
  print head
  print budget
  save head
  save budget

period 5 step 10 
  print head
  print budget
  save head
  save budget

period 6 step 10 
  print head
  print budget
  save head
  save budget

period 7 step 10 
  print head
  print budget
  save head
  save budget

period 8 step 10 
  print head
  print budget
  save head
  save budget

period 9 step 10 
  print head
  print budget
  save head
  save budget

period 10 step 10 
  print head
  print budget
  save head
  save budget

period 11 step 10 
  print head
  print budget
  save head
  save budget

period 12 step 10 
  print head
  print budget
  save head
  save budget

period 13 step 10 
  print head
  print budget
  save head
  save budget

period 14 step 10 
  print head
  print budget
  save head
  save budget

period 15 step 10 
  print head
  print budget
  save head
  save budget

period 16 step 10 
  print head
  print budget
  save head
  save budget

period 17 step 10 
  print head
  print budget
  save head
  save budget

period 18 step 10 
  print head
  print budget
  save head
  save budget

period 19 step 10 
  print head
  print budget
  save head
  save budget

period 20 step 10 
  print head
  print budget
  save head
  save budget

period 21 step 10 
  print head
  print budget
  save head
  save budget

period 22 step 10 
  print head
  print budget
  save head
  save budget

period 23 step 10 
  print head
  print budget
  save head
  save budget

period 24 step 10 
  print head
  print budget
  save head
  save budget

