# GHB package for MODFLOW-NWT generated by Flopy 3.3.5
       200        55
       200         0 # stress period 1
         1         1         1            40.0            0.01
         1         2         1            40.0            0.01
         1         3         1            40.0            0.01
         1         4         1            40.0            0.01
         1         5         1            40.0            0.01
         1         6         1            40.0            0.01
         1         7         1            40.0            0.01
         1         8         1            40.0            0.01
         1         9         1            40.0            0.01
         1        10         1            40.0            0.01
         1        11         1            40.0            0.01
         1        12         1            40.0            0.01
         1        13         1            40.0            0.01
         1        14         1            40.0            0.01
         1        15         1            40.0            0.01
         1        16         1            40.0            0.01
         1        17         1            40.0            0.01
         1        18         1            40.0            0.01
         1        19         1            40.0            0.01
         1        20         1            40.0            0.01
         1        21         1            40.0            0.01
         1        22         1            40.0            0.01
         1        23         1            40.0            0.01
         1        24         1            40.0            0.01
         1        25         1            40.0            0.01
         1        26         1            40.0            0.01
         1        27         1            40.0            0.01
         1        28         1            40.0            0.01
         1        29         1            40.0            0.01
         1        30         1            40.0            0.01
         1        31         1            40.0            0.01
         1        32         1            40.0            0.01
         1        33         1            40.0            0.01
         1        34         1            40.0            0.01
         1        35         1            40.0            0.01
         1        36         1            40.0            0.01
         1        37         1            40.0            0.01
         1        38         1            40.0            0.01
         1        39         1            40.0            0.01
         1        40         1            40.0            0.01
         1        41         1            40.0            0.01
         1        42         1            40.0            0.01
         1        43         1            40.0            0.01
         1        44         1            40.0            0.01
         1        45         1            40.0            0.01
         1        46         1            40.0            0.01
         1        47         1            40.0            0.01
         1        48         1            40.0            0.01
         1        49         1            40.0            0.01
         1        50         1            40.0            0.01
         1        51         1            40.0            0.01
         1        52         1            40.0            0.01
         1        53         1            40.0            0.01
         1        54         1            40.0            0.01
         1        55         1            40.0            0.01
         1        56         1            40.0            0.01
         1        57         1            40.0            0.01
         1        58         1            40.0            0.01
         1        59         1            40.0            0.01
         1        60         1            40.0            0.01
         1        61         1            40.0            0.01
         1        62         1            40.0            0.01
         1        63         1            40.0            0.01
         1        64         1            40.0            0.01
         1        65         1            40.0            0.01
         1        66         1            40.0            0.01
         1        67         1            40.0            0.01
         1        68         1            40.0            0.01
         1        69         1            40.0            0.01
         1        70         1            40.0            0.01
         1        71         1            40.0            0.01
         1        72         1            40.0            0.01
         1        73         1            40.0            0.01
         1        74         1            40.0            0.01
         1        75         1            40.0            0.01
         1        76         1            40.0            0.01
         1        77         1            40.0            0.01
         1        78         1            40.0            0.01
         1        79         1            40.0            0.01
         1        80         1            40.0            0.01
         1        81         1            40.0            0.01
         1        82         1            40.0            0.01
         1        83         1            40.0            0.01
         1        84         1            40.0            0.01
         1        85         1            40.0            0.01
         1        86         1            40.0            0.01
         1        87         1            40.0            0.01
         1        88         1            40.0            0.01
         1        89         1            40.0            0.01
         1        90         1            40.0            0.01
         1        91         1            40.0            0.01
         1        92         1            40.0            0.01
         1        93         1            40.0            0.01
         1        94         1            40.0            0.01
         1        95         1            40.0            0.01
         1        96         1            40.0            0.01
         1        97         1            40.0            0.01
         1        98         1            40.0            0.01
         1        99         1            40.0            0.01
         1       100         1            40.0            0.01
         1         1       100            40.0            0.01
         1         2       100            40.0            0.01
         1         3       100            40.0            0.01
         1         4       100            40.0            0.01
         1         5       100            40.0            0.01
         1         6       100            40.0            0.01
         1         7       100            40.0            0.01
         1         8       100            40.0            0.01
         1         9       100            40.0            0.01
         1        10       100            40.0            0.01
         1        11       100            40.0            0.01
         1        12       100            40.0            0.01
         1        13       100            40.0            0.01
         1        14       100            40.0            0.01
         1        15       100            40.0            0.01
         1        16       100            40.0            0.01
         1        17       100            40.0            0.01
         1        18       100            40.0            0.01
         1        19       100            40.0            0.01
         1        20       100            40.0            0.01
         1        21       100            40.0            0.01
         1        22       100            40.0            0.01
         1        23       100            40.0            0.01
         1        24       100            40.0            0.01
         1        25       100            40.0            0.01
         1        26       100            40.0            0.01
         1        27       100            40.0            0.01
         1        28       100            40.0            0.01
         1        29       100            40.0            0.01
         1        30       100            40.0            0.01
         1        31       100            40.0            0.01
         1        32       100            40.0            0.01
         1        33       100            40.0            0.01
         1        34       100            40.0            0.01
         1        35       100            40.0            0.01
         1        36       100            40.0            0.01
         1        37       100            40.0            0.01
         1        38       100            40.0            0.01
         1        39       100            40.0            0.01
         1        40       100            40.0            0.01
         1        41       100            40.0            0.01
         1        42       100            40.0            0.01
         1        43       100            40.0            0.01
         1        44       100            40.0            0.01
         1        45       100            40.0            0.01
         1        46       100            40.0            0.01
         1        47       100            40.0            0.01
         1        48       100            40.0            0.01
         1        49       100            40.0            0.01
         1        50       100            40.0            0.01
         1        51       100            40.0            0.01
         1        52       100            40.0            0.01
         1        53       100            40.0            0.01
         1        54       100            40.0            0.01
         1        55       100            40.0            0.01
         1        56       100            40.0            0.01
         1        57       100            40.0            0.01
         1        58       100            40.0            0.01
         1        59       100            40.0            0.01
         1        60       100            40.0            0.01
         1        61       100            40.0            0.01
         1        62       100            40.0            0.01
         1        63       100            40.0            0.01
         1        64       100            40.0            0.01
         1        65       100            40.0            0.01
         1        66       100            40.0            0.01
         1        67       100            40.0            0.01
         1        68       100            40.0            0.01
         1        69       100            40.0            0.01
         1        70       100            40.0            0.01
         1        71       100            40.0            0.01
         1        72       100            40.0            0.01
         1        73       100            40.0            0.01
         1        74       100            40.0            0.01
         1        75       100            40.0            0.01
         1        76       100            40.0            0.01
         1        77       100            40.0            0.01
         1        78       100            40.0            0.01
         1        79       100            40.0            0.01
         1        80       100            40.0            0.01
         1        81       100            40.0            0.01
         1        82       100            40.0            0.01
         1        83       100            40.0            0.01
         1        84       100            40.0            0.01
         1        85       100            40.0            0.01
         1        86       100            40.0            0.01
         1        87       100            40.0            0.01
         1        88       100            40.0            0.01
         1        89       100            40.0            0.01
         1        90       100            40.0            0.01
         1        91       100            40.0            0.01
         1        92       100            40.0            0.01
         1        93       100            40.0            0.01
         1        94       100            40.0            0.01
         1        95       100            40.0            0.01
         1        96       100            40.0            0.01
         1        97       100            40.0            0.01
         1        98       100            40.0            0.01
         1        99       100            40.0            0.01
         1       100       100            40.0            0.01
       200         0 # stress period 2
         1         1         1            40.0            0.01
         1         2         1            40.0            0.01
         1         3         1            40.0            0.01
         1         4         1            40.0            0.01
         1         5         1            40.0            0.01
         1         6         1            40.0            0.01
         1         7         1            40.0            0.01
         1         8         1            40.0            0.01
         1         9         1            40.0            0.01
         1        10         1            40.0            0.01
         1        11         1            40.0            0.01
         1        12         1            40.0            0.01
         1        13         1            40.0            0.01
         1        14         1            40.0            0.01
         1        15         1            40.0            0.01
         1        16         1            40.0            0.01
         1        17         1            40.0            0.01
         1        18         1            40.0            0.01
         1        19         1            40.0            0.01
         1        20         1            40.0            0.01
         1        21         1            40.0            0.01
         1        22         1            40.0            0.01
         1        23         1            40.0            0.01
         1        24         1            40.0            0.01
         1        25         1            40.0            0.01
         1        26         1            40.0            0.01
         1        27         1            40.0            0.01
         1        28         1            40.0            0.01
         1        29         1            40.0            0.01
         1        30         1            40.0            0.01
         1        31         1            40.0            0.01
         1        32         1            40.0            0.01
         1        33         1            40.0            0.01
         1        34         1            40.0            0.01
         1        35         1            40.0            0.01
         1        36         1            40.0            0.01
         1        37         1            40.0            0.01
         1        38         1            40.0            0.01
         1        39         1            40.0            0.01
         1        40         1            40.0            0.01
         1        41         1            40.0            0.01
         1        42         1            40.0            0.01
         1        43         1            40.0            0.01
         1        44         1            40.0            0.01
         1        45         1            40.0            0.01
         1        46         1            40.0            0.01
         1        47         1            40.0            0.01
         1        48         1            40.0            0.01
         1        49         1            40.0            0.01
         1        50         1            40.0            0.01
         1        51         1            40.0            0.01
         1        52         1            40.0            0.01
         1        53         1            40.0            0.01
         1        54         1            40.0            0.01
         1        55         1            40.0            0.01
         1        56         1            40.0            0.01
         1        57         1            40.0            0.01
         1        58         1            40.0            0.01
         1        59         1            40.0            0.01
         1        60         1            40.0            0.01
         1        61         1            40.0            0.01
         1        62         1            40.0            0.01
         1        63         1            40.0            0.01
         1        64         1            40.0            0.01
         1        65         1            40.0            0.01
         1        66         1            40.0            0.01
         1        67         1            40.0            0.01
         1        68         1            40.0            0.01
         1        69         1            40.0            0.01
         1        70         1            40.0            0.01
         1        71         1            40.0            0.01
         1        72         1            40.0            0.01
         1        73         1            40.0            0.01
         1        74         1            40.0            0.01
         1        75         1            40.0            0.01
         1        76         1            40.0            0.01
         1        77         1            40.0            0.01
         1        78         1            40.0            0.01
         1        79         1            40.0            0.01
         1        80         1            40.0            0.01
         1        81         1            40.0            0.01
         1        82         1            40.0            0.01
         1        83         1            40.0            0.01
         1        84         1            40.0            0.01
         1        85         1            40.0            0.01
         1        86         1            40.0            0.01
         1        87         1            40.0            0.01
         1        88         1            40.0            0.01
         1        89         1            40.0            0.01
         1        90         1            40.0            0.01
         1        91         1            40.0            0.01
         1        92         1            40.0            0.01
         1        93         1            40.0            0.01
         1        94         1            40.0            0.01
         1        95         1            40.0            0.01
         1        96         1            40.0            0.01
         1        97         1            40.0            0.01
         1        98         1            40.0            0.01
         1        99         1            40.0            0.01
         1       100         1            40.0            0.01
         1         1       100            40.0            0.01
         1         2       100            40.0            0.01
         1         3       100            40.0            0.01
         1         4       100            40.0            0.01
         1         5       100            40.0            0.01
         1         6       100            40.0            0.01
         1         7       100            40.0            0.01
         1         8       100            40.0            0.01
         1         9       100            40.0            0.01
         1        10       100            40.0            0.01
         1        11       100            40.0            0.01
         1        12       100            40.0            0.01
         1        13       100            40.0            0.01
         1        14       100            40.0            0.01
         1        15       100            40.0            0.01
         1        16       100            40.0            0.01
         1        17       100            40.0            0.01
         1        18       100            40.0            0.01
         1        19       100            40.0            0.01
         1        20       100            40.0            0.01
         1        21       100            40.0            0.01
         1        22       100            40.0            0.01
         1        23       100            40.0            0.01
         1        24       100            40.0            0.01
         1        25       100            40.0            0.01
         1        26       100            40.0            0.01
         1        27       100            40.0            0.01
         1        28       100            40.0            0.01
         1        29       100            40.0            0.01
         1        30       100            40.0            0.01
         1        31       100            40.0            0.01
         1        32       100            40.0            0.01
         1        33       100            40.0            0.01
         1        34       100            40.0            0.01
         1        35       100            40.0            0.01
         1        36       100            40.0            0.01
         1        37       100            40.0            0.01
         1        38       100            40.0            0.01
         1        39       100            40.0            0.01
         1        40       100            40.0            0.01
         1        41       100            40.0            0.01
         1        42       100            40.0            0.01
         1        43       100            40.0            0.01
         1        44       100            40.0            0.01
         1        45       100            40.0            0.01
         1        46       100            40.0            0.01
         1        47       100            40.0            0.01
         1        48       100            40.0            0.01
         1        49       100            40.0            0.01
         1        50       100            40.0            0.01
         1        51       100            40.0            0.01
         1        52       100            40.0            0.01
         1        53       100            40.0            0.01
         1        54       100            40.0            0.01
         1        55       100            40.0            0.01
         1        56       100            40.0            0.01
         1        57       100            40.0            0.01
         1        58       100            40.0            0.01
         1        59       100            40.0            0.01
         1        60       100            40.0            0.01
         1        61       100            40.0            0.01
         1        62       100            40.0            0.01
         1        63       100            40.0            0.01
         1        64       100            40.0            0.01
         1        65       100            40.0            0.01
         1        66       100            40.0            0.01
         1        67       100            40.0            0.01
         1        68       100            40.0            0.01
         1        69       100            40.0            0.01
         1        70       100            40.0            0.01
         1        71       100            40.0            0.01
         1        72       100            40.0            0.01
         1        73       100            40.0            0.01
         1        74       100            40.0            0.01
         1        75       100            40.0            0.01
         1        76       100            40.0            0.01
         1        77       100            40.0            0.01
         1        78       100            40.0            0.01
         1        79       100            40.0            0.01
         1        80       100            40.0            0.01
         1        81       100            40.0            0.01
         1        82       100            40.0            0.01
         1        83       100            40.0            0.01
         1        84       100            40.0            0.01
         1        85       100            40.0            0.01
         1        86       100            40.0            0.01
         1        87       100            40.0            0.01
         1        88       100            40.0            0.01
         1        89       100            40.0            0.01
         1        90       100            40.0            0.01
         1        91       100            40.0            0.01
         1        92       100            40.0            0.01
         1        93       100            40.0            0.01
         1        94       100            40.0            0.01
         1        95       100            40.0            0.01
         1        96       100            40.0            0.01
         1        97       100            40.0            0.01
         1        98       100            40.0            0.01
         1        99       100            40.0            0.01
         1       100       100            40.0            0.01
       200         0 # stress period 3
         1         1         1            40.0            0.01
         1         2         1            40.0            0.01
         1         3         1            40.0            0.01
         1         4         1            40.0            0.01
         1         5         1            40.0            0.01
         1         6         1            40.0            0.01
         1         7         1            40.0            0.01
         1         8         1            40.0            0.01
         1         9         1            40.0            0.01
         1        10         1            40.0            0.01
         1        11         1            40.0            0.01
         1        12         1            40.0            0.01
         1        13         1            40.0            0.01
         1        14         1            40.0            0.01
         1        15         1            40.0            0.01
         1        16         1            40.0            0.01
         1        17         1            40.0            0.01
         1        18         1            40.0            0.01
         1        19         1            40.0            0.01
         1        20         1            40.0            0.01
         1        21         1            40.0            0.01
         1        22         1            40.0            0.01
         1        23         1            40.0            0.01
         1        24         1            40.0            0.01
         1        25         1            40.0            0.01
         1        26         1            40.0            0.01
         1        27         1            40.0            0.01
         1        28         1            40.0            0.01
         1        29         1            40.0            0.01
         1        30         1            40.0            0.01
         1        31         1            40.0            0.01
         1        32         1            40.0            0.01
         1        33         1            40.0            0.01
         1        34         1            40.0            0.01
         1        35         1            40.0            0.01
         1        36         1            40.0            0.01
         1        37         1            40.0            0.01
         1        38         1            40.0            0.01
         1        39         1            40.0            0.01
         1        40         1            40.0            0.01
         1        41         1            40.0            0.01
         1        42         1            40.0            0.01
         1        43         1            40.0            0.01
         1        44         1            40.0            0.01
         1        45         1            40.0            0.01
         1        46         1            40.0            0.01
         1        47         1            40.0            0.01
         1        48         1            40.0            0.01
         1        49         1            40.0            0.01
         1        50         1            40.0            0.01
         1        51         1            40.0            0.01
         1        52         1            40.0            0.01
         1        53         1            40.0            0.01
         1        54         1            40.0            0.01
         1        55         1            40.0            0.01
         1        56         1            40.0            0.01
         1        57         1            40.0            0.01
         1        58         1            40.0            0.01
         1        59         1            40.0            0.01
         1        60         1            40.0            0.01
         1        61         1            40.0            0.01
         1        62         1            40.0            0.01
         1        63         1            40.0            0.01
         1        64         1            40.0            0.01
         1        65         1            40.0            0.01
         1        66         1            40.0            0.01
         1        67         1            40.0            0.01
         1        68         1            40.0            0.01
         1        69         1            40.0            0.01
         1        70         1            40.0            0.01
         1        71         1            40.0            0.01
         1        72         1            40.0            0.01
         1        73         1            40.0            0.01