# UPW package for MODFLOW-NWT generated by Flopy 3.3.5
        55    -1E+30         0         0 
         1
         0
   1.000000E+00
         0
         0
INTERNAL               1 (100E15.6) -1 #hk layer 1                    
   1.505979E-02   1.718806E-02   2.760563E-02   3.617572E-02   2.910447E-02   4.522315E-02   2.325883E-02   2.348839E-02   2.221911E-02   1.027028E-02   1.018574E-02   3.201817E-02   2.735740E-02   5.825658E-02   1.013328E-01   9.283427E-02   7.509100E-02   4.552227E+02   1.080675E+03   1.074259E+03   1.433140E+03   1.140930E+03   4.788822E+02   3.396434E+02   1.096258E+03   1.804048E-01   2.690967E-01   7.550862E-02   1.754907E-01   1.049607E-01   1.227384E-01   1.183539E-01   1.217276E-01   1.172169E-01   1.547738E-01   1.794195E-01   1.812050E-01   2.022167E-01   2.251656E-01   1.771646E-01   1.132398E-01   6.907977E-02   4.083892E-02   5.154197E-02   7.806706E-02   1.395449E-01   4.558484E-02   3.481311E-02   1.480730E+02   8.114670E+01   9.231561E+01   9.620755E+01   7.797919E+01   5.930594E+01   1.227743E+02   6.552356E+01   3.349656E+01   2.520844E+01   2.315248E+01   6.003737E+01   3.195863E+01   1.871495E+01   2.330690E+01   1.829840E+01   5.190700E-03   1.087272E-02   6.141319E-03   2.112180E-02   7.707936E-03   9.283927E-03   1.218457E-02   9.069828E-03   1.146627E-02   1.032987E-02   9.944347E-03   9.169469E-03   1.322081E-02   1.065350E-02   1.732320E-02   2.531114E-02   2.362231E-02   3.198120E-02   1.382423E-02   6.945878E-03   6.151117E-03   7.792427E-03   5.210371E-03   5.889137E-03   1.516158E-02   1.591106E-02   1.629399E-02   2.101296E-02   1.344108E-02   9.964397E-03   1.456237E-02   8.717433E-03   1.677839E-02   2.168090E-02   2.794075E+01   1.072065E+01
   1.374398E-02   2.121031E-02   2.844668E-02   2.371006E-02   4.577886E-02   3.225957E-02   1.943609E-02   2.525411E-02   3.338310E-02   1.679316E-02   1.296171E-02   3.427328E-02   4.062844E-02   8.262543E-02   1.057724E-01   1.628662E+02   2.138272E+02   3.353975E+02   5.148766E+02   1.988316E+03   1.945915E+03   1.020936E+03   5.031447E+02   6.230676E+02   4.019228E+02   1.063267E-01   8.662251E-02   7.786305E-02   1.376117E-01   1.032225E-01   5.156380E-02   4.993267E-02   6.215600E-02   7.068671E-02   2.275462E-01   2.422443E-01   2.424527E-01   1.368653E-01   2.664517E-01   1.432806E-01   1.147901E-01   9.163413E-02   5.681200E-02   9.779301E-02   5.386310E-02   3.054962E-02   5.806244E-02   3.013673E-02   2.650975E-02   3.650759E-02   1.475770E+02   9.453818E+01   7.865981E+01   5.048249E+01   9.735644E+01   6.989567E+01   3.668282E+01   1.625587E+01   1.801427E+01   5.308999E+01   6.233488E+01   3.979530E+01   3.384930E+01   2.679483E+01   2.222049E+01   2.143238E+01   1.148587E-02   1.045413E-02   1.794266E-02   6.081888E-03   6.088566E-03   1.287804E-02   1.320502E-02   8.285565E-03   2.116072E-02   1.364572E-02   1.085054E-02   1.451337E-02   2.268480E-02   3.333323E-02   1.843669E-02   1.589818E-02   1.078748E-02   7.383176E-03   8.297444E-03   7.875021E-03   4.273852E-03   1.091668E-02   1.400865E-02   1.680927E-02   1.682247E-02   3.221090E-02   2.013887E-02   1.493569E-02   4.973815E+01   2.875283E+01   3.642901E+01   2.016311E+01   1.918087E+01   2.186384E+01
   1.141022E-02   2.182843E-02   3.684700E-02   2.611137E-02   2.381037E-02   2.991325E-02   3.858128E-02   2.569447E-02   1.976588E-02   1.810851E-02   2.460169E-02   8.488062E+01   1.074853E+02   2.262026E+02   4.012596E+02   4.880101E+02   3.683412E+02   3.969496E+02   1.145103E+03   9.640262E+02   1.813325E+03   9.607881E+02   7.765920E+02   1.151804E+03   1.405227E-01   7.656344E-02   6.681262E-02   1.067283E-01   5.883287E-02   8.017828E-02   4.210364E-02   3.378911E-02   7.625379E-02   1.501734E-01   1.451380E-01   1.112188E-01   1.361866E-01   1.623331E-01   1.017297E-01   1.577922E-01   1.317468E-01   6.860078E-02   9.927002E-02   6.172030E-02   6.424992E-02   7.509126E-02   5.100888E-02   3.795848E-02   3.953980E-02   3.849131E-02   1.221696E-02   1.327880E-02   1.899865E-02   1.028921E-02   4.887489E+01   5.412158E+01   3.690070E+01   2.820361E+01   2.699180E+01   1.671214E+01   7.145748E+01   3.180545E+01   5.026915E+01   2.248520E+01   2.815923E+01   2.348324E+01   3.894704E+01   5.789743E+01   1.844037E-02   2.151257E-02   1.442902E-02   1.232110E-02   1.696422E-02   2.110636E-02   2.953929E-02   1.597334E-02   1.259219E-02   2.393079E-02   1.717177E-02   2.225415E-02   1.714037E-02   9.542737E-03   1.057817E-02   7.676087E-03   1.142473E-02   7.011546E-03   8.521398E-03   1.285946E-02   1.751922E-02   1.943767E-02   1.673081E-02   1.665143E-02   1.196097E-02   2.352172E+01   3.160439E+01   2.914354E+01   2.226481E+01   1.946395E+01   1.918283E+01   1.416498E+01
   1.741689E-02   4.715438E-02   5.554872E-02   7.406892E-02   4.405071E-02   3.439424E-02   1.983530E+02   9.462254E+01   9.279516E+01   9.594600E+01   1.686462E+02   1.079516E+02   1.496797E+02   2.132506E+02   1.413790E+02   5.166577E+02   4.176029E+02   8.326699E+02   2.187318E+03   3.666648E+03   4.583632E+03   1.551659E+03   1.129837E+03   3.260821E-01   1.560894E-01   1.847885E-01   1.656498E-01   1.029251E-01   1.141580E-01   4.253450E-02   3.107349E-02   4.207538E-02   6.874215E-02   5.277406E-02   7.523207E-02   4.940137E-02   7.295014E-02   3.091088E-02   3.641502E-02   7.434793E-02   5.091679E-02   5.124116E-02   6.645472E-02   3.381285E-02   4.796058E-02   6.213863E-02   7.230676E-02   4.630133E-02   3.603766E-02   1.576873E-02   2.632221E-02   9.816924E-03   8.051093E-03   9.346156E-03   4.048908E+01   1.774283E-02   4.369851E+01   2.282048E+01   4.265890E+01   2.436636E+01   3.678902E+01   1.442736E+01   1.944445E+01   1.350278E+01   2.417612E+01   2.876683E+01   5.672081E+01   4.289585E+01   3.885739E+01   6.027978E+01   1.780803E-02   1.406837E-02   6.901785E-03   1.640191E-02   1.611253E-02   1.127689E-02   1.204161E-02   1.786771E-02   1.606118E-02   2.251633E-02   1.356570E-02   1.306878E-02   1.515077E-02   1.081643E-02   5.948783E-03   1.292492E-02   1.515037E-02   8.408167E-03   9.617805E-03   2.492611E-02   2.735206E-02   5.234821E+01   3.369124E+01   4.036083E+01   4.610030E+01   2.524407E+01   3.288834E+01   2.991338E+01   1.844297E+01   1.301817E+01
   8.688308E-03   2.430092E-02   1.161824E+02   1.197241E+02   2.288422E+02   1.559753E+02   1.406698E+02   1.953342E+02   1.889030E+02   1.073040E+02   1.702517E+02   2.267098E+02   3.202639E+02   6.632570E+02   3.355000E+02   4.664486E+02   5.624749E+02   6.676618E+02   1.862004E+03   2.977276E+03   2.634042E+03   3.962370E+03   4.919717E-01   3.390781E-01   4.054780E-01   4.908872E-01   2.734157E-01   1.196209E-01   9.359071E-02   3.081895E-02   6.307326E-02   4.617370E-02   2.227784E-02   3.004421E-02   1.698947E-02   2.394100E-02   2.950948E-02   3.365623E-02   3.386814E-02   7.214157E-02   5.487584E-02   5.435827E-02   4.409161E-02   5.150219E-02   5.462320E-02   4.922039E-02   5.858923E-02   4.560403E-02   3.121014E-02   2.756670E-02   1.803775E-02   1.296608E-02   5.976779E-03   9.211086E-03   1.408958E-02   7.231442E-03   7.207063E-03   5.248603E-03   1.795473E+01   1.586902E+01   1.354681E+01   1.184824E+01   1.758134E+01   3.930370E+01   2.775368E+01   3.170003E+01   2.078126E+01   1.927085E+01   3.010767E+01   2.236819E+01   8.289793E+01   2.209293E-02   1.064538E-02   1.275305E-02   1.120022E-02   6.600384E-03   7.900476E-03   7.542208E-03   8.215803E-03   1.352153E-02   3.153713E-02   2.609524E-02   1.836184E-02   1.757474E-02   1.610181E-02   1.732934E-02   1.539255E-02   1.127401E-02   1.103763E-02   2.222076E+01   3.927976E+01   2.966907E+01   2.607478E+01   3.712091E+01   2.429592E+01   1.683091E+01   2.731808E+01   2.640386E+01   1.265580E+01   1.774114E+01
   1.629458E-02   2.586260E-02   7.428740E+01   1.198127E+02   1.319457E+02   8.761398E+01   2.637448E+02   3.165304E+02   4.765006E+02   3.821450E+02   5.427176E+02   6.444810E+02   4.011187E+02   9.466700E+02   1.355545E+03   5.793083E+02   3.553796E+02   4.505067E+02   9.235616E+02   2.534122E+03   4.555356E+03   2.732842E+03   6.237943E-01   4.163676E-01   5.666810E-01   9.154853E-01   2.820573E-01   1.900170E-01   1.488312E-01   5.027923E-02   3.050731E-02   3.474190E-02   1.062075E-02   1.592560E-02   9.803508E-03   1.467201E-02   1.383838E-02   1.977246E-02   4.244331E-02   5.103091E-02   6.594016E-02   3.686855E-02   3.531866E-02   7.509240E-02   6.295133E-02   4.308177E-02   2.534231E-02   6.462254E-02   3.854370E-02   2.808715E-02   2.442840E-02   2.289728E-02   1.629496E-02   1.657557E-02   1.007820E-02   8.169707E-03   6.374673E-03   4.693817E-03   1.995343E+01   8.016533E+00   9.310486E+00   1.059717E+01   2.510714E+01   3.697285E+01   2.671079E+01   1.611716E+01   1.021588E+01   1.812234E+01   2.174522E+01   2.459907E+01   7.509795E+01   9.412002E-03   5.590180E-03   8.829434E-03   3.811767E-03   5.903282E-03   3.093939E-03   1.178886E-02   1.170275E-02   1.015291E-02   2.631912E-02   2.917160E-02   2.070377E-02   1.947287E-02   3.772929E-02   2.090999E-02   1.269119E-02   1.054163E-02   8.594718E-03   3.274140E+01   2.453008E+01   2.093059E+01   1.440381E+01   1.475086E+01   2.360699E+01   1.109129E+01   1.560958E+01   1.426704E+01   7.981188E+00   1.197469E+01
   6.360485E+01   6.314685E+01   1.101120E+02   1.287834E+02   8.868710E+01   8.595235E+01   2.218565E+02   2.267873E+02   4.452838E+02   6.760428E+02   6.571385E+02   8.738039E+02   6.166518E+02   7.291381E+02   9.830708E+02   4.436344E+02   2.994625E+02   2.977943E+02   9.472855E+02   2.370788E+03   1.937763E+03   4.972644E-01   1.085190E+00   6.580967E-01   7.503195E-01   4.900591E-01   2.756888E-01   2.565129E-01   1.980961E-01   1.168578E-01   3.730243E-02   6.958602E-02   1.935328E-02   1.263448E-02   1.071326E-02   1.274323E-02   1.057793E-02   2.112506E-02   3.675941E-02   4.297531E-02   3.608990E-02   2.353942E-02   5.672758E-02   9.692726E-02   8.509888E-02   5.347569E-02   3.795814E-02   5.959133E-02   4.525432E-02   3.899311E-02   2.883424E-02   1.921254E-02   2.243594E-02   1.803571E-02   1.238290E-02   8.036507E-03   3.661820E-03   5.412644E-03   4.343186E-03   1.310813E+01   2.040641E+01   1.967346E+01   3.664294E+01   2.342039E+01   2.551303E+01   9.242697E+00   2.068246E+01   2.285718E+01   2.284330E+01   2.124220E+01   1.938638E+01   1.195104E+01   3.910943E-03   5.220246E-03   6.642572E-03   8.756967E-03   5.495433E-03   9.907488E-03   7.755027E-03   7.244644E-03   1.444948E-02   3.899994E-02   1.869024E-02   1.653727E-02   1.589629E-02   1.975338E-02   1.036638E-02   9.884061E-03   8.957635E-03   2.194830E+01   4.102857E+01   4.055935E+01   1.719687E+01   7.615603E+00   5.045410E+00   8.011497E+00   8.961061E+00   1.051736E+01   1.443225E+01   1.177248E+01
   6.757214E+01   4.574493E+01   9.120026E+01   1.011025E+02   5.165134E+01   1.109744E+02   1.950931E+02   4.205990E+02   4.803696E+02   4.676852E+02   3.805882E+02   5.200826E+02   6.664274E+02   8.250675E+02   4.289281E+02   3.590603E+02   1.345906E+02   3.164587E+02   5.504070E+02   3.177217E-01   3.758053E-01   3.180858E-01   1.066425E+00   6.051280E-01   7.713684E-01   7.125105E-01   5.849195E-01   3.743907E-01   1.984482E-01   1.017108E-01   4.289368E-02   3.872374E-02   1.500799E-02   9.397268E-03   1.218922E-02   1.219842E-02   2.287675E-02   2.388005E-02   2.108881E-02   1.702893E-02   2.253440E-02   2.246126E-02   3.233660E-02   7.008340E-02   6.316252E-02   8.031473E-02   4.214872E-02   4.984722E-02   1.046631E-01   4.563919E-02   2.116001E-02   3.691135E-02   2.085593E-02   1.090584E-02   5.922024E-03   1.186976E-02   1.014353E-02   1.139331E-02   4.508951E-03   4.205055E-03   5.089026E-03   2.865875E+01   2.923458E+01   1.559727E+01   2.913484E+01   1.517628E+01   9.225829E+00   1.028199E+01   1.142775E+01   1.179774E+01   8.840405E+00   1.584474E+01   4.868784E+01   1.252848E-02   1.375448E-02   1.178906E-02   7.453146E-03   8.145422E-03   1.073386E-02   1.148902E-02   1.745475E-02   7.632469E+01   1.517738E-02   5.868848E+01   7.056791E+01   5.844849E+01   4.713117E+01   3.195193E+01   3.306237E+01   3.692498E+01   3.045244E+01   1.026927E+01   2.307011E+01   1.718130E+01   3.087101E+00   5.857547E+00   5.974306E+00   7.533620E+00   1.388675E+01   1.369679E+01
   3.535134E+01   5.019535E+01   1.282627E+02   1.277777E+02   1.069418E+02   9.489555E+01   2.779627E+02   6.148519E+02   4.005978E+02   7.523668E+02   3.926673E+02   2.332074E+02   4.398300E+02   3.108931E+02   3.553136E+02   1.967013E+02   1.779351E+02   6.197828E-02   1.398886E-01   3.038979E-01   3.623352E-01   3.539527E-01   3.935773E-01   4.432366E-01   7.820032E-01   7.875013E-01   7.015781E-01   3.867623E-01   3.329325E-01   1.783633E-01   1.362587E-01   6.232858E-02   2.228314E-02   1.276088E-02   1.002059E-02   1.432455E-02   2.770182E-02   1.464281E-02   1.309873E-02   1.740063E-02   2.389472E-02   4.998522E-02   1.794141E-02   7.043273E-02   1.260702E-01   1.305932E-01   6.327397E-02   1.337932E-01   9.525187E-02   1.048698E-01   8.479296E-02   4.916110E-02   3.198321E-02   1.305646E-02   1.239236E-02   6.340712E-03   7.649697E-03   1.820475E-02   4.996934E-03   6.173393E-03   3.751009E-03   3.991251E-03   5.478307E-03   1.751036E+01   1.657335E+01   9.826729E+00   1.892880E+01   1.424600E+01   9.120256E+00   1.304432E+01   1.132781E+01   2.159942E+01   3.670824E+01   3.837220E+01   5.046849E+01   4.651884E+01   3.355331E+01   3.670055E+01   1.077456E+02   6.822718E+01   3.843044E+01   3.992625E+01   6.735931E+01   6.941178E+01   6.601144E+01   3.746983E+01   5.256538E+01   5.901383E+01   6.031586E+01   3.619920E+01   2.241744E+01   3.113426E+01   2.889337E+01   1.714714E+01   6.715818E+00   7.211543E+00   1.054181E+01   9.284369E+00   2.898117E-03   5.675384E-03
   8.197330E+00   3.483495E+01   6.771940E+01   1.304525E+02   1.543553E+02   9.039027E+01   3.646386E+02   3.254048E+02   7.005102E+02   6.580085E+02   3.097112E+02   2.661560E+02   2.853158E+02   1.060938E-01   4.342554E-02   1.931646E-02   2.671541E-02   7.929620E-02   1.350560E-01   2.706468E-01   3.313949E-01   3.711438E-01   5.260307E-01   5.422343E-01   7.533411E-01   5.102615E-01   3.387881E-01   3.707785E-01   3.233495E-01   3.442076E-01   1.133187E-01   6.222720E-02   2.631307E-02   2.251492E-02   1.740137E-02   3.102476E-02   6.821401E-02   4.976168E-02   1.645142E-02   2.186542E-02   3.268825E-02   3.277482E-02   2.921577E-02   5.367130E-02   1.000860E-01   1.612094E-01   6.761707E-02   7.439659E-02   6.655484E-02   1.356746E-01   5.869626E-02   4.586435E-02   2.461269E-02   2.095099E-02   1.185807E-02   1.042279E-02   6.852359E-03   1.180063E-02   7.878846E-03   5.933113E-03   2.792255E-03   3.015306E-03   4.990211E-03   1.958017E-03   1.441441E+01   1.036413E+01   1.025733E+01   1.167794E+01   9.716811E+00   1.309407E+01   1.887969E+01   2.566132E+01   3.440523E+01   3.012484E+01   3.785554E+01   3.432578E+01   3.056998E+01   4.440323E+01   6.800586E+01   4.607184E+01   4.422485E+01   9.195117E+01   9.259748E+01   1.059759E+02   1.274162E+02   1.139257E+02   5.859981E+01   5.585101E+01   5.604325E+01   6.123941E+01   2.585916E+01   3.346701E+01   3.203201E+01   1.305582E+01   3.460185E-03   1.292084E-03   2.637192E-03   4.495611E-03   3.363437E-03   1.025152E-02
   9.672795E+00   3.392159E+01   3.982022E+01   9.848718E+01   1.403803E+02   1.302380E+02   1.741202E+02   4.875266E+02   1.358829E-01   9.911940E-02   1.059090E-01   7.406854E-02   1.305174E-01   1.507791E-01   1.065634E-01   8.131790E-02   4.822772E-02   4.988335E-02   1.717726E-01   1.966894E-01   1.320206E-01   2.464872E-01   4.635615E-01   8.099883E-01   4.144901E-01   2.292606E-01   1.551314E-01   1.196777E-01   2.260634E-01   1.783756E-01   1.406659E-01   8.753249E-02   8.245771E-02   3.830801E-02   2.217065E-02   1.931563E-02   3.458753E-02   2.768616E-02   3.532927E-02   2.253578E-02   2.028312E-02   1.446843E-02   3.075698E-02   6.382727E-02   4.535985E-02   8.276739E-02   5.213433E-02   5.016327E-02   2.668196E-02   3.450076E-02   3.068355E-02   1.727890E-02   3.567835E-02   2.440827E-02   1.460359E-02   1.408925E-02   8.547409E-03   9.306303E-03   5.799859E-03   7.877910E-03   5.951240E-03   3.530414E-03   2.684442E-03   2.281765E-03   1.391442E-03   1.401434E-03   8.386895E+00   1.569152E+01   9.527578E+00   1.650224E+01   4.930452E+01   4.466346E+01   2.346502E+01   3.523186E+01   2.139416E+01   2.138245E+01   2.292315E+01   4.673971E+01   2.926170E+01   5.348584E+01   5.683529E+01   7.867190E+01   7.628127E+01   6.356178E+01   8.317212E+01   5.482536E+01   3.957659E+01   5.143081E+01   5.547960E+01   4.243327E+01   2.934846E+01   1.037802E-02   4.478621E-03   7.002576E-03   1.762369E-03   1.204383E-03   1.478938E-03   5.266941E-03   1.047958E-02   1.439221E-02
   2.190032E+01   4.468961E+01   6.206257E+01   9.661217E+01   1.521516E+02   2.643626E-02   2.770081E-02   7.102315E-02   7.388040E-02   8.663545E-02   7.175253E-02   9.979428E-02   1.454940E-01   1.433279E-01   1.104966E-01   9.802574E-02   4.845781E-02   2.333895E-02   8.866051E-02   1.347613E-01   2.850477E-01   2.450895E-01   3.835178E-01   4.683811E-01   2.588106E-01   1.408001E-01   1.244609E-01   9.512438E-02   5.984930E-02   6.654879E-02   1.001750E-01   9.928681E-02   9.966799E-02   4.144548E-02   3.064628E-02   2.101773E-02   2.226607E-02   3.219340E-02   2.017866E-02   1.667315E-02   7.806232E-03   1.141895E-02   9.852474E-03   2.532033E-02   2.985186E-02   3.859202E-02   3.219583E-02   2.318976E-02   1.538599E-02   2.399478E-02   2.570086E-02   2.511931E-02   3.093573E-02   1.583652E-02   1.795142E-02   1.955243E-02   1.019667E-02   8.961204E-03   4.010774E-03   6.735050E-03   4.275649E-03   4.197313E-03   2.830922E-03   1.987884E-03   1.205918E-03   1.330681E-03   1.399982E-03   7.028226E+00   1.333791E+01   1.711901E+01   3.092351E+01   3.141135E+01   3.625212E+01   3.703005E+01   2.137657E+01   2.077884E+01   2.070906E+01   2.575272E+01   1.057378E+01   1.136925E+01   2.981858E+01   5.018959E+01   4.950449E+01   5.170078E+01   5.175963E+01   3.861589E+01   2.366699E+01   3.035689E+01   1.756783E+01   1.544320E+01   3.429953E-03   3.789666E-03   3.325076E-03   7.130942E-03   2.599218E-03   7.507476E-04   1.018803E-03   2.084974E-03   9.093624E-03   1.667803E-02
   5.065924E+01   4.943564E+01   4.707583E+01   2.348492E-02   1.601787E-02   2.361068E-02   1.826328E-02   2.947269E-02   3.882125E-02   8.853987E-02   5.134119E-02   7.073385E-02   6.313496E-02   1.535765E-01   1.016610E-01   8.121554E-02   5.266169E-02   6.622597E-02   6.447881E-02   1.818118E-01   1.946576E-01   3.055089E-01   5.338399E-01   3.705029E-01   2.273322E-01   1.560375E-01   1.297418E-01   6.831115E-02   4.917584E-02   6.066021E-02   6.115931E-02   5.230688E-02   6.287654E-02   6.775446E-02   5.796798E-02   2.427676E-02   2.316304E-02   1.894122E-02   1.894368E-02   1.251000E-02   1.022985E-02   1.045724E-02   9.284317E-03   1.338710E-02   1.488832E-02   1.062525E-02   2.148344E-02   1.454879E-02   9.503384E-03   1.128554E-02   2.865017E-02   2.602660E-02   2.902783E-02   1.062296E-02   1.873036E-02   3.102988E-02   9.898384E-03   1.011985E-02   5.392816E-03   5.595413E-03   3.707016E-03   7.923034E-03   4.836431E-03   1.736220E-03   1.804222E-03   8.569883E-04   8.450378E-04   5.617311E+00   6.948332E+00   6.711137E+00   9.606458E+00   3.363972E+01   3.526878E+01   5.374738E+01   2.729701E+01   2.285357E+01   1.011711E+01   1.799780E+01   1.179938E+01   1.073685E+01   2.196799E+01   4.439141E+01   4.538551E+01   7.513644E+01   2.828757E+01   2.165519E+01   8.219702E+00   8.999861E+00   1.034949E+01   2.725933E+01   5.310709E-03   2.237286E-03   2.993412E-03   5.273804E-03   2.812942E-03   2.713015E-03   1.550257E-03   1.755973E-03   4.999773E-03   1.219365E-02
   1.147644E-02   2.089976E-02   1.320929E-02   1.380455E-02   1.061644E-02   1.927640E-02   2.210903E-02   3.257889E-02   5.493460E-02   4.002966E-02   6.575038E-02   7.058639E-02   1.210937E-01   1.245182E-01   9.981580E-02   1.019918E-01   9.587535E-02   1.286900E-01   8.036485E-02   1.041570E-01   1.139307E-01   2.277536E-01   4.233042E-01   3.868053E-01   1.675501E-01   1.069949E-01   1.058093E-01   6.928965E-02   6.974339E-02   7.076034E-02   8.869649E-02   7.865920E-02   9.665138E-02   6.103257E-02   5.795878E-02   1.984580E-02   1.817493E-02   1.048242E-02   1.050751E-02   1.445141E-02   1.647079E-02   2.094862E-02   1.855855E-02   1.115932E-02   1.554332E-02   1.229040E-02   8.606130E-03   1.462902E-02   1.523225E-02   1.443677E-02   1.071776E-02   2.472061E-02   1.846530E-02   1.387661E-02   1.684869E-02   1.494988E-02   1.601022E-02   1.242172E-02   8.196710E-03   3.979818E-03   4.713080E-03   7.425295E-03   2.708908E-03   1.584822E-03   1.414714E-03   1.112559E-03   1.421681E-03   1.224791E-03   1.427572E-03   2.036191E-03   1.126149E+01   2.055191E+01   3.450948E+01   5.663131E+01   3.089113E+01   1.925023E+01   2.976434E+01   2.549097E+01   4.255223E+01   2.447194E+01   2.849228E+01   2.445998E+01   4.112872E+01   7.499568E+01   2.895581E+01   2.590415E+01   7.907831E-03   3.726247E-03   5.981926E-03   1.085551E-02   8.651964E-03   5.532925E-03   3.203331E-03   3.760387E-03   3.983034E-03   2.255064E-03   2.648788E-03   3.618558E-03   5.916047E-03   9.023946E-03
   2.971412E-02   2.350389E-02   2.076175E-02   2.468130E-02   1.068123E-02   1.377810E-02   1.631252E-02   1.757331E-02   2.609820E-02   3.482398E-02   7.313888E-02   4.971668E-02   5.685274E-02   1.577048E-01   8.291773E-02   1.128907E-01   1.058412E-01   1.160145E-01   8.052718E-02   8.346851E-02   2.250577E-01   2.099243E-01   1.801208E-01   1.279105E-01   1.554017E-01   1.329096E-01   1.056805E-01   7.716876E-02   8.627822E-02   7.021410E-02   4.237337E-02   1.048153E-01   8.723092E-02   6.020197E-02   9.069130E-02   5.560449E-02   3.671186E-02   1.966885E-02   2.587754E-02   1.669882E-02   1.692598E-02   1.685292E-02   1.196842E-02   1.036627E-02   7.419873E-03   1.036307E-02   1.161013E-02   2.420100E-02   2.205097E-02   3.894552E-02   2.144285E-02   3.209877E-02   3.311596E-02   2.299281E-02   1.464916E-02   3.167463E-02   1.125693E-02   1.589276E-02   1.127491E-02   6.248109E-03   4.761106E-03   4.356208E-03   1.910359E-03   9.505339E-04   1.949368E-03   1.175668E-03   6.916767E-04   2.004272E-03   1.950882E-03   1.898592E-03   5.384919E-03   5.594036E-03   1.346768E-02   9.533287E-03   7.910135E-03   3.723715E-03   4.985132E-03   9.854103E-03   1.138630E-02   8.013190E-03   8.044569E-03   1.037958E-02   1.733636E-02   3.191896E-02   2.059268E-02   1.468444E-02   9.513993E-03   9.708531E-03   5.792913E-03   1.539921E-02   2.268025E-02   1.325396E-02   7.456705E-03   5.144355E-03   3.311889E-03   3.583224E-03   3.812027E-03   8.427216E-03   9.735178E-03   1.680336E-02
   2.014720E-02   3.123341E-02   2.626399E-02   1.591486E-02   7.646348E-03   4.392799E-03   3.955255E-03   6.568261E-03   1.078083E-02   1.860023E-02   2.877952E-02   8.160418E-02   4.768617E-02   5.264128E-02   6.022655E-02   1.081110E-01   1.519422E-01   1.028274E-01   6.003026E-02   8.199245E-02   9.473164E-02   1.531138E-01   7.144856E-02   6.761346E-02   7.500553E-02   7.417695E-02   1.486521E-01   1.144131E-01   9.473367E-02   6.354804E-02   6.722212E-02   7.792699E-02   5.349272E-02   7.334129E-02   7.227513E-02   4.069531E-02   3.170019E-02   1.759395E-02   1.909856E-02   1.667942E-02   1.681124E-02   7.831914E-03   9.481904E-03   9.767715E-03   9.454257E-03   8.028811E-03   1.516802E-02   2.742174E-02   3.477876E-02   5.241259E-02   3.697648E-02   3.603399E-02   4.529440E-02   2.322028E-02   1.937591E-02   2.432967E-02   1.763628E-02   1.065338E-02   8.935155E-03   7.148762E-03   4.007377E-03   3.373038E-03   4.875998E-03   1.445252E-03   8.532691E-04   1.683811E-03   1.741552E-03   9.152100E-04   2.029487E-03   2.902407E-03   3.518714E-03   7.782198E-03   9.324290E-03   1.324775E-02   5.799558E-03   5.769759E-03   8.344865E-03   6.398522E-03   7.818303E-03   1.218149E-02   2.394026E-02   1.215216E-02   2.625346E-02   2.698875E-02   2.737940E-02   1.908765E-02   3.824225E-02   1.693385E-02   1.699209E-02   1.464410E-02   1.789019E-02   1.183339E-02   9.560017E-03   6.818505E-03   1.118980E-02   7.818844E-03   3.209720E-03   3.690495E-03   5.812056E-03   1.042480E-02
   1.791467E-02   1.309812E-02   1.388739E-02   1.174634E-02   5.194647E-03   2.145309E-03   2.920054E-03   2.951526E-03   7.577148E-03   1.638768E-02   2.648965E-02   3.732383E-02   4.245076E-02   4.305528E-02   5.756794E-02   8.539028E-02   5.746165E-02   6.348742E-02   6.218018E-02   6.061881E-02   7.056211E-02   4.910185E-02   4.404831E-02   3.334521E-02   4.403402E-02   9.247717E-02   1.085222E-01   8.793659E-02   9.087148E-02   7.070307E-02   7.152434E-02   4.176291E-02   3.758833E-02   4.230101E-02   2.878414E-02   4.666927E-02   4.419703E-02   2.607059E-02   2.153632E-02   1.024014E-02   7.334989E-03   9.146761E-03   1.531802E-02   1.444969E-02   1.076362E-02   9.170520E-03   1.568483E-02   2.899390E-02   8.192693E-02   8.878931E-02   4.168812E-02   4.921582E-02   4.037213E-02   2.349400E-02   2.211647E-02   1.105038E-02   1.050580E-02   1.237700E-02   1.171066E-02   7.289782E-03   6.149049E-03   3.922348E-03   5.121474E-03   5.651033E-03   2.390349E-03   1.931673E-03   1.907252E-03   2.063420E-03   2.400937E-03   3.822430E-03   4.364982E-03   9.292007E-03   9.221328E-03   1.739466E-02   7.651697E-03   1.065407E-02   1.396911E-02   9.996168E-03   6.756177E-03   1.457630E-02   2.403039E-02   3.002284E-02   6.532218E-03   1.417006E-02   1.590586E-02   4.785905E-02   2.781303E-02   6.184635E-02   2.345894E-02   3.161362E-02   1.812027E-02   1.079094E-02   1.080644E-02   9.729543E-03   1.193000E-02   6.999246E-03   8.991228E-03   7.033019E-03   7.936593E-03   2.303106E-02
   3.119213E-02   1.458172E-02   1.110131E-02   8.801019E-03   4.879683E-03   3.130623E-03   2.405277E-03   4.347445E-03   4.424770E-03   1.115453E-02   1.821201E-02   3.158746E-02   5.914631E-02   8.551006E-02   1.266716E-01   9.918962E-02   1.029560E-01   4.037485E-02   4.851887E-02   5.521524E-02   3.259991E-02   5.579928E-02   6.907979E-02   5.768477E-02   5.742685E-02   5.597453E-02   5.305734E-02   8.572929E-02   8.426516E-02   5.773019E-02   4.515314E-02   4.788980E-02   1.554357E-02   2.165563E-02   1.232580E-02   2.014433E-02   1.373314E-02   1.891247E-02   1.511701E-02   9.055250E-03   1.879328E-02   1.458258E-02   8.482860E-03   1.757160E-02   1.814195E-02   7.442886E-03   2.997053E-02   6.385605E-02   9.512645E-02   9.100746E-02   7.947717E-02   5.379401E-02   5.354355E-02   2.731933E-02   2.959884E-02   1.249647E-02   1.915297E-02   9.639613E-03   1.291420E-02   9.306679E-03   6.091843E-03   8.391964E-03   8.851936E-03   1.098660E-02   3.657776E-03   5.969655E-03   2.209694E-03   2.367938E-03   3.179257E-03   3.126282E-03   5.273676E-03   7.196758E-03   2.002421E-02   1.792878E-02   1.790079E-02   8.669741E-03   8.956572E-03   9.105965E-03   8.853387E-03   1.500262E-02   3.302216E-02   1.713312E-02   1.463341E-02   1.671454E-02   4.358157E-02   7.015190E-02   4.259516E-02   4.676715E-02   4.962366E-02   2.650796E-02   9.734429E-03   8.905124E-03   7.942622E-03   8.987357E-03   9.470974E-03   1.252475E-02   1.816597E-02   1.110439E-02   1.081944E-02   1.421068E-02
   4.277828E-02   2.625024E-02   1.362453E-02   8.439096E-03   8.101651E-03   7.070443E-03   4.313201E-03   7.035744E-03   2.661400E-03   7.536481E-03   1.350217E-02   4.276702E-02   6.092558E-02   3.123001E-02   9.550709E-02   8.158767E-02   9.325105E-02   8.251419E-02   5.655454E-02   5.429336E-02   4.705354E-02   1.316670E-01   2.109742E-01   8.571545E-02   6.505761E-02   3.909374E-02   5.089843E-02   4.293773E-02   3.859603E-02   3.888027E-02   3.547338E-02   2.441858E-02   2.566453E-02   2.745556E-02   9.334528E-03   1.460794E-02   1.411991E-02   7.218159E-03   1.117156E-02   4.977585E-03   1.133784E-02   1.155888E-02   1.788327E-02   2.718057E-02   3.348584E-02   1.961600E-02   4.079864E-02   2.755658E-02   5.414936E-02   6.880583E-02   9.962270E-02   1.570479E-01   7.766237E-02   4.354519E-02   1.505882E-02   1.518835E-02   1.216688E-02   1.012600E-02   9.391982E-03   2.059275E-02   1.133949E-02   1.202209E-02   1.764999E-02   2.415290E-02   9.818614E-03   9.156903E-03   3.310002E-03   5.523960E-03   3.786097E-03   6.609099E-03   6.246470E-03   7.927317E-03   8.055388E-03   7.664260E-03   1.611598E-02   1.018291E-02   1.297108E-02   1.150479E-02   7.967575E-03   1.771571E-02   2.160599E-02   1.457184E-02   1.481374E-02   2.537744E-02   2.652213E-02   5.396129E-02   4.906380E-02   3.742046E-02   2.296171E-02   2.565737E-02   1.024515E-02   1.771760E-02   1.252227E-02   1.298099E-02   1.093726E-02   1.065453E-02   1.222741E-02   1.042250E-02   6.550123E-03   1.948818E-02