# WEL package for MODFLOW-NWT generated by Flopy 3.3.5
         9         0 
         0         0 # stress period 1
         9         0 # stress period 2
         1        49        49           -50.0
         1        50        49           -50.0
         1        51        49           -50.0
         1        49        50           -50.0
         1        50        50           -50.0
         1        51        50           -50.0
         1        49        51           -50.0
         1        50        51           -50.0
         1        51        51           -50.0
         9         0 # stress period 3
         1        49        49           -50.0
         1        50        49           -50.0
         1        51        49           -50.0
         1        49        50           -50.0
         1        50        50           -50.0
         1        51        50           -50.0
         1        49        51           -50.0
         1        50        51           -50.0
         1        51        51           -50.0
         9         0 # stress period 4
         1        49        49           -50.0
         1        50        49           -50.0
         1        51        49           -50.0
         1        49        50           -50.0
         1        50        50           -50.0
         1        51        50           -50.0
         1        49        51           -50.0
         1        50        51           -50.0
         1        51        51           -50.0
         9         0 # stress period 5
         1        49        49           -50.0
         1        50        49           -50.0
         1        51        49           -50.0
         1        49        50           -50.0
         1        50        50           -50.0
         1        51        50           -50.0
         1        49        51           -50.0
         1        50        51           -50.0
         1        51        51           -50.0
         9         0 # stress period 6
         1        49        49           -50.0
         1        50        49           -50.0
         1        51        49           -50.0
         1        49        50           -50.0
         1        50        50           -50.0
         1        51        50           -50.0
         1        49        51           -50.0
         1        50        51           -50.0
         1        51        51           -50.0
         9         0 # stress period 7
         1        49        49           -50.0
         1        50        49           -50.0
         1        51        49           -50.0
         1        49        50           -50.0
         1        50        50           -50.0
         1        51        50           -50.0
         1        49        51           -50.0
         1        50        51           -50.0
         1        51        51           -50.0
         9         0 # stress period 8
         1        49        49           -50.0
         1        50        49           -50.0
         1        51        49           -50.0
         1        49        50           -50.0
         1        50        50           -50.0
         1        51        50           -50.0
         1        49        51           -50.0
         1        50        51           -50.0
         1        51        51           -50.0
         9         0 # stress period 9
         1        49        49           -50.0
         1        50        49           -50.0
         1        51        49           -50.0
         1        49        50           -50.0
         1        50        50           -50.0
         1        51        50           -50.0
         1        49        51           -50.0
         1        50        51           -50.0
         1        51        51           -50.0
         9         0 # stress period 10
         1        49        49           -50.0
         1        50        49           -50.0
         1        51        49           -50.0
         1        49        50           -50.0
         1        50        50           -50.0
         1        51        50           -50.0
         1        49        51           -50.0
         1        50        51           -50.0
         1        51        51           -50.0
         9         0 # stress period 11
         1        49        49           -50.0
         1        50        49           -50.0
         1        51        49           -50.0
         1        49        50           -50.0
         1        50        50           -50.0
         1        51        50           -50.0
         1        49        51           -50.0
         1        50        51           -50.0
         1        51        51           -50.0
         9         0 # stress period 12
         1        49        49           -50.0
         1        50        49           -50.0
         1        51        49           -50.0
         1        49        50           -50.0
         1        50        50           -50.0
         1        51        50           -50.0
         1        49        51           -50.0
         1        50        51           -50.0
         1        51        51           -50.0
         9         0 # stress period 13
         1        49        49           -50.0
         1        50        49           -50.0
         1        51        49           -50.0
         1        49        50           -50.0
         1        50        50           -50.0
         1        51        50           -50.0
         1        49        51           -50.0
         1        50        51           -50.0
         1        51        51           -50.0
         9         0 # stress period 14
         1        49        49           -50.0
         1        50        49           -50.0
         1        51        49           -50.0
         1        49        50           -50.0
         1        50        50           -50.0
         1        51        50           -50.0
         1        49        51           -50.0
         1        50        51           -50.0
         1        51        51           -50.0
         9         0 # stress period 15
         1        49        49           -50.0
         1        50        49           -50.0
         1        51        49           -50.0
         1        49        50           -50.0
         1        50        50           -50.0
         1        51        50           -50.0
         1        49        51           -50.0
         1        50        51           -50.0
         1        51        51           -50.0
         9         0 # stress period 16
         1        49        49           -50.0
         1        50        49           -50.0
         1        51        49           -50.0
         1        49        50           -50.0
         1        50        50           -50.0
         1        51        50           -50.0
         1        49        51           -50.0
         1        50        51           -50.0
         1        51        51           -50.0
         9         0 # stress period 17
         1        49        49           -50.0
         1        50        49           -50.0
         1        51        49           -50.0
         1        49        50           -50.0
         1        50        50           -50.0
         1        51        50           -50.0
         1        49        51           -50.0
         1        50        51           -50.0
         1        51        51           -50.0
         9         0 # stress period 18
         1        49        49           -50.0
         1        50        49           -50.0
         1        51        49           -50.0
         1        49        50           -50.0
         1        50        50           -50.0
         1        51        50           -50.0
         1        49        51           -50.0
         1        50        51           -50.0
         1        51        51           -50.0
         9         0 # stress period 19
         1        49        49           -50.0
         1        50        49           -50.0
         1        51        49           -50.0
         1        49        50           -50.0
         1        50        50           -50.0
         1        51        50           -50.0
         1        49        51           -50.0
         1        50        51           -50.0
         1        51        51           -50.0
         9         0 # stress period 20
         1        49        49           -50.0
         1        50        49           -50.0
         1        51        49           -50.0
         1        49        50           -50.0
         1        50        50           -50.0
         1        51        50           -50.0
         1        49        51           -50.0
         1        50        51           -50.0
         1        51        51           -50.0
         9         0 # stress period 21
         1        49        49           -50.0
         1        50        49           -50.0
         1        51        49           -50.0
         1        49        50           -50.0
         1        50        50           -50.0
         1        51        50           -50.0
         1        49        51           -50.0
         1        50        51           -50.0
         1        51        51           -50.0
         9         0 # stress period 22
         1        49        49           -50.0
         1        50        49           -50.0
         1        51        49           -50.0
         1        49        50           -50.0
         1        50        50           -50.0
         1        51        50           -50.0
         1        49        51           -50.0
         1        50        51           -50.0
         1        51        51           -50.0
         9         0 # stress period 23
         1        49        49           -50.0
         1        50        49           -50.0
         1        51        49           -50.0
         1        49        50           -50.0
         1        50        50           -50.0
         1        51        50           -50.0
         1        49        51           -50.0
         1        50        51           -50.0
         1        51        51           -50.0
         9         0 # stress period 24
         1        49        49           -50.0
         1        50        49           -50.0
         1        51        49           -50.0
         1        49        50           -50.0
         1        50        50           -50.0
         1        51        50           -50.0
         1        49        51           -50.0
         1        50        51           -50.0
         1        51        51           -50.0
